g1bl6-1      none
 OpenBabel12242019553D

 38 41  0  0  0  0  0  0  0  0999 V2000
    7.9239   10.9532   30.2430 F   0  0  0  0  0  0  0  0  0  0  0  0
    6.6819   11.4846   30.2215 C   0  0  0  0  0  0  0  0  0  0  0  0
    5.7987   11.1356   29.2126 C   0  0  0  0  0  0  0  0  0  0  0  0
    4.5297   11.6755   29.1863 C   0  0  0  0  0  0  0  0  0  0  0  0
    4.1359   12.5738   30.1779 C   0  0  0  0  0  0  0  0  0  0  0  0
    2.7742   13.1570   30.1541 C   0  0  0  0  0  0  0  0  0  0  0  0
    1.5820   12.4572   30.2092 C   0  0  0  0  0  0  0  0  0  0  0  0
    1.4166   10.9939   30.3021 C   0  0  0  0  0  0  0  0  0  0  0  0
    0.7235   10.2832   29.3130 C   0  0  0  0  0  0  0  0  0  0  0  0
    0.5982    8.9161   29.4370 C   0  0  0  0  0  0  0  0  0  0  0  0
    1.1101    8.2794   30.4738 N   0  0  0  0  0  0  0  0  0  0  0  0
    1.7648    8.9105   31.4307 C   0  0  0  0  0  0  0  0  0  0  0  0
    1.9430   10.2765   31.3847 C   0  0  0  0  0  0  0  0  0  0  0  0
    0.5811   13.4013   30.1604 N   0  0  0  0  0  0  0  0  0  0  0  0
   -0.8602   13.1401   30.1907 C   0  0  0  0  0  0  0  0  0  0  0  0
   -1.3478   13.1388   31.6410 C   0  0  0  0  0  0  0  0  0  0  0  0
   -2.7779   13.6134   31.9057 C   0  0  0  0  0  0  0  0  0  0  0  0
   -1.5930   14.4952   32.3049 C   0  0  0  0  0  0  0  0  0  0  0  0
    1.1728   14.6119   30.0791 C   0  0  0  0  0  0  0  0  0  0  0  0
    2.4685   14.4648   30.0699 N   0  0  0  0  0  0  0  0  0  0  0  0
    5.0300   12.9258   31.1886 C   0  0  0  0  0  0  0  0  0  0  0  0
    6.2954   12.3766   31.2089 C   0  0  0  0  0  0  0  0  0  0  0  0
    6.1046   10.4398   28.4452 H   0  0  0  0  0  0  0  0  0  0  0  0
    3.8419   11.4029   28.3995 H   0  0  0  0  0  0  0  0  0  0  0  0
    0.2982   10.7979   28.4642 H   0  0  0  0  0  0  0  0  0  0  0  0
    0.0697    8.3586   28.6778 H   0  0  0  0  0  0  0  0  0  0  0  0
    2.1667    8.3487   32.2609 H   0  0  0  0  0  0  0  0  0  0  0  0
    2.4798   10.7862   32.1711 H   0  0  0  0  0  0  0  0  0  0  0  0
   -1.3821   13.9175   29.6326 H   0  0  0  0  0  0  0  0  0  0  0  0
   -1.0632   12.1695   29.7382 H   0  0  0  0  0  0  0  0  0  0  0  0
   -0.9599   12.3348   32.2665 H   0  0  0  0  0  0  0  0  0  0  0  0
   -3.3714   13.9268   31.0469 H   0  0  0  0  0  0  0  0  0  0  0  0
   -3.3314   13.1218   32.7058 H   0  0  0  0  0  0  0  0  0  0  0  0
   -1.3668   14.5833   33.3677 H   0  0  0  0  0  0  0  0  0  0  0  0
   -1.4065   15.3884   31.7089 H   0  0  0  0  0  0  0  0  0  0  0  0
    0.6529   15.5569   30.0253 H   0  0  0  0  0  0  0  0  0  0  0  0
    4.7311   13.6241   31.9563 H   0  0  0  0  0  0  0  0  0  0  0  0
    6.9874   12.6458   31.9933 H   0  0  0  0  0  0  0  0  0  0  0  0
  1  2  1  0  0  0  0
  2 22  2  0  0  0  0
  2  3  1  0  0  0  0
  3  4  2  0  0  0  0
  3 23  1  0  0  0  0
  4  5  1  0  0  0  0
  4 24  1  0  0  0  0
  5  6  1  0  0  0  0
  5 21  2  0  0  0  0
  6 20  1  0  0  0  0
  6  7  2  0  0  0  0
  7  8  1  0  0  0  0
  7 14  1  0  0  0  0
  8 13  2  0  0  0  0
  8  9  1  0  0  0  0
  9 10  2  0  0  0  0
  9 25  1  0  0  0  0
 10 11  1  0  0  0  0
 10 26  1  0  0  0  0
 11 12  2  0  0  0  0
 12 13  1  0  0  0  0
 12 27  1  0  0  0  0
 13 28  1  0  0  0  0
 14 15  1  0  0  0  0
 14 19  1  0  0  0  0
 15 16  1  0  0  0  0
 15 29  1  0  0  0  0
 15 30  1  0  0  0  0
 16 18  1  0  0  0  0
 16 17  1  0  0  0  0
 16 31  1  0  0  0  0
 17 18  1  0  0  0  0
 17 32  1  0  0  0  0
 17 33  1  0  0  0  0
 18 34  1  0  0  0  0
 18 35  1  0  0  0  0
 19 20  2  0  0  0  0
 19 36  1  0  0  0  0
 21 22  1  0  0  0  0
 21 37  1  0  0  0  0
 22 38  1  0  0  0  0
M  END
$$$$
g1bl6-1      none
 OpenBabel12242019553D

 38 41  0  0  0  0  0  0  0  0999 V2000
    8.0868   11.0980   29.9713 F   0  0  0  0  0  0  0  0  0  0  0  0
    6.8727   11.6869   30.0382 C   0  0  0  0  0  0  0  0  0  0  0  0
    6.5469   12.4784   31.1265 C   0  0  0  0  0  0  0  0  0  0  0  0
    5.3077   13.0800   31.1990 C   0  0  0  0  0  0  0  0  0  0  0  0
    4.3813   12.8890   30.1741 C   0  0  0  0  0  0  0  0  0  0  0  0
    3.0488   13.5324   30.2473 C   0  0  0  0  0  0  0  0  0  0  0  0
    1.8258   12.8857   30.2528 C   0  0  0  0  0  0  0  0  0  0  0  0
    1.5924   11.4302   30.1867 C   0  0  0  0  0  0  0  0  0  0  0  0
    0.8479   10.8667   29.1415 C   0  0  0  0  0  0  0  0  0  0  0  0
    0.6598    9.5015   29.1162 C   0  0  0  0  0  0  0  0  0  0  0  0
    1.1600    8.7302   30.0642 N   0  0  0  0  0  0  0  0  0  0  0  0
    1.8615    9.2200   31.0688 C   0  0  0  0  0  0  0  0  0  0  0  0
    2.1038   10.5730   31.1703 C   0  0  0  0  0  0  0  0  0  0  0  0
    0.8704   13.8737   30.3326 N   0  0  0  0  0  0  0  0  0  0  0  0
   -0.5809   13.6766   30.3679 C   0  0  0  0  0  0  0  0  0  0  0  0
   -1.0411   13.5352   31.8202 C   0  0  0  0  0  0  0  0  0  0  0  0
   -2.4418   14.0417   32.1698 C   0  0  0  0  0  0  0  0  0  0  0  0
   -1.2089   14.8185   32.6362 C   0  0  0  0  0  0  0  0  0  0  0  0
    1.5177   15.0578   30.3721 C   0  0  0  0  0  0  0  0  0  0  0  0
    2.8045   14.8539   30.3159 N   0  0  0  0  0  0  0  0  0  0  0  0
    4.7112   12.0856   29.0828 C   0  0  0  0  0  0  0  0  0  0  0  0
    5.9549   11.4923   29.0171 C   0  0  0  0  0  0  0  0  0  0  0  0
    7.2651   12.6258   31.9196 H   0  0  0  0  0  0  0  0  0  0  0  0
    5.0553   13.6982   32.0478 H   0  0  0  0  0  0  0  0  0  0  0  0
    0.4321   11.4920   28.3654 H   0  0  0  0  0  0  0  0  0  0  0  0
    0.0913    9.0571   28.3126 H   0  0  0  0  0  0  0  0  0  0  0  0
    2.2513    8.5511   31.8218 H   0  0  0  0  0  0  0  0  0  0  0  0
    2.6788   10.9667   31.9954 H   0  0  0  0  0  0  0  0  0  0  0  0
   -1.0754   14.5345   29.9119 H   0  0  0  0  0  0  0  0  0  0  0  0
   -0.8383   12.7730   29.8155 H   0  0  0  0  0  0  0  0  0  0  0  0
   -0.6806   12.6496   32.3434 H   0  0  0  0  0  0  0  0  0  0  0  0
   -3.0355   14.4758   31.3653 H   0  0  0  0  0  0  0  0  0  0  0  0
   -3.0032   13.4892   32.9233 H   0  0  0  0  0  0  0  0  0  0  0  0
   -0.9592   14.7770   33.6965 H   0  0  0  0  0  0  0  0  0  0  0  0
   -0.9910   15.7635   32.1385 H   0  0  0  0  0  0  0  0  0  0  0  0
    1.0426   16.0255   30.4357 H   0  0  0  0  0  0  0  0  0  0  0  0
    3.9958   11.9314   28.2887 H   0  0  0  0  0  0  0  0  0  0  0  0
    6.2127   10.8729   28.1706 H   0  0  0  0  0  0  0  0  0  0  0  0
  1  2  1  0  0  0  0
  2 22  2  0  0  0  0
  2  3  1  0  0  0  0
  3  4  2  0  0  0  0
  3 23  1  0  0  0  0
  4  5  1  0  0  0  0
  4 24  1  0  0  0  0
  5  6  1  0  0  0  0
  5 21  2  0  0  0  0
  6 20  1  0  0  0  0
  6  7  2  0  0  0  0
  7  8  1  0  0  0  0
  7 14  1  0  0  0  0
  8 13  2  0  0  0  0
  8  9  1  0  0  0  0
  9 10  2  0  0  0  0
  9 25  1  0  0  0  0
 10 11  1  0  0  0  0
 10 26  1  0  0  0  0
 11 12  2  0  0  0  0
 12 13  1  0  0  0  0
 12 27  1  0  0  0  0
 13 28  1  0  0  0  0
 14 15  1  0  0  0  0
 14 19  1  0  0  0  0
 15 16  1  0  0  0  0
 15 29  1  0  0  0  0
 15 30  1  0  0  0  0
 16 18  1  0  0  0  0
 16 17  1  0  0  0  0
 16 31  1  0  0  0  0
 17 18  1  0  0  0  0
 17 32  1  0  0  0  0
 17 33  1  0  0  0  0
 18 34  1  0  0  0  0
 18 35  1  0  0  0  0
 19 20  2  0  0  0  0
 19 36  1  0  0  0  0
 21 22  1  0  0  0  0
 21 37  1  0  0  0  0
 22 38  1  0  0  0  0
M  END
$$$$
g1bl6-1      none
 OpenBabel12242019553D

 38 41  0  0  0  0  0  0  0  0999 V2000
    7.2926   11.6956   29.0403 F   0  0  0  0  0  0  0  0  0  0  0  0
    6.0400   12.0777   29.3723 C   0  0  0  0  0  0  0  0  0  0  0  0
    5.7994   12.6582   30.6072 C   0  0  0  0  0  0  0  0  0  0  0  0
    4.5223   13.0500   30.9507 C   0  0  0  0  0  0  0  0  0  0  0  0
    3.4721   12.8615   30.0524 C   0  0  0  0  0  0  0  0  0  0  0  0
    2.0985   13.2801   30.4165 C   0  0  0  0  0  0  0  0  0  0  0  0
    0.9863   12.4611   30.4960 C   0  0  0  0  0  0  0  0  0  0  0  0
    0.9339   11.0096   30.2362 C   0  0  0  0  0  0  0  0  0  0  0  0
    0.1062   10.4867   29.2334 C   0  0  0  0  0  0  0  0  0  0  0  0
    0.0933    9.1248   29.0210 C   0  0  0  0  0  0  0  0  0  0  0  0
    0.8370    8.3171   29.7537 N   0  0  0  0  0  0  0  0  0  0  0  0
    1.6257    8.7667   30.7119 C   0  0  0  0  0  0  0  0  0  0  0  0
    1.7059   10.1145   30.9890 C   0  0  0  0  0  0  0  0  0  0  0  0
   -0.0618   13.2733   30.8665 N   0  0  0  0  0  0  0  0  0  0  0  0
   -1.4501   12.8561   31.0785 C   0  0  0  0  0  0  0  0  0  0  0  0
   -2.2913   14.0690   31.4808 C   0  0  0  0  0  0  0  0  0  0  0  0
   -3.7612   14.0814   31.0561 C   0  0  0  0  0  0  0  0  0  0  0  0
   -2.7575   15.0066   30.3652 C   0  0  0  0  0  0  0  0  0  0  0  0
    0.4258   14.5253   30.9982 C   0  0  0  0  0  0  0  0  0  0  0  0
    1.7013   14.5278   30.7264 N   0  0  0  0  0  0  0  0  0  0  0  0
    3.7185   12.2725   28.8125 C   0  0  0  0  0  0  0  0  0  0  0  0
    5.0001   11.8883   28.4763 C   0  0  0  0  0  0  0  0  0  0  0  0
    6.6134   12.8038   31.3022 H   0  0  0  0  0  0  0  0  0  0  0  0
    4.3357   13.5023   31.9135 H   0  0  0  0  0  0  0  0  0  0  0  0
   -0.5084   11.1410   28.6331 H   0  0  0  0  0  0  0  0  0  0  0  0
   -0.5378    8.7124   28.2477 H   0  0  0  0  0  0  0  0  0  0  0  0
    2.2167    8.0689   31.2865 H   0  0  0  0  0  0  0  0  0  0  0  0
    2.3534   10.4753   31.7744 H   0  0  0  0  0  0  0  0  0  0  0  0
   -1.8458   12.4288   30.1572 H   0  0  0  0  0  0  0  0  0  0  0  0
   -1.4877   12.1088   31.8712 H   0  0  0  0  0  0  0  0  0  0  0  0
   -2.0412   14.5167   32.4425 H   0  0  0  0  0  0  0  0  0  0  0  0
   -4.1288   13.2254   30.4903 H   0  0  0  0  0  0  0  0  0  0  0  0
   -4.4784   14.5372   31.7388 H   0  0  0  0  0  0  0  0  0  0  0  0
   -2.8145   16.0711   30.5933 H   0  0  0  0  0  0  0  0  0  0  0  0
   -2.4645   14.7596   29.3448 H   0  0  0  0  0  0  0  0  0  0  0  0
   -0.1526   15.3925   31.2808 H   0  0  0  0  0  0  0  0  0  0  0  0
    2.9079   12.1206   28.1152 H   0  0  0  0  0  0  0  0  0  0  0  0
    5.1924   11.4355   27.5149 H   0  0  0  0  0  0  0  0  0  0  0  0
  1  2  1  0  0  0  0
  2 22  2  0  0  0  0
  2  3  1  0  0  0  0
  3  4  2  0  0  0  0
  3 23  1  0  0  0  0
  4  5  1  0  0  0  0
  4 24  1  0  0  0  0
  5  6  1  0  0  0  0
  5 21  2  0  0  0  0
  6 20  1  0  0  0  0
  6  7  2  0  0  0  0
  7  8  1  0  0  0  0
  7 14  1  0  0  0  0
  8 13  2  0  0  0  0
  8  9  1  0  0  0  0
  9 10  2  0  0  0  0
  9 25  1  0  0  0  0
 10 11  1  0  0  0  0
 10 26  1  0  0  0  0
 11 12  2  0  0  0  0
 12 13  1  0  0  0  0
 12 27  1  0  0  0  0
 13 28  1  0  0  0  0
 14 15  1  0  0  0  0
 14 19  1  0  0  0  0
 15 16  1  0  0  0  0
 15 29  1  0  0  0  0
 15 30  1  0  0  0  0
 16 18  1  0  0  0  0
 16 17  1  0  0  0  0
 16 31  1  0  0  0  0
 17 18  1  0  0  0  0
 17 32  1  0  0  0  0
 17 33  1  0  0  0  0
 18 34  1  0  0  0  0
 18 35  1  0  0  0  0
 19 20  2  0  0  0  0
 19 36  1  0  0  0  0
 21 22  1  0  0  0  0
 21 37  1  0  0  0  0
 22 38  1  0  0  0  0
M  END
$$$$
g1bl6-1      none
 OpenBabel12242019553D

 38 41  0  0  0  0  0  0  0  0999 V2000
   -8.5005   11.4909   29.8458 F   0  0  0  0  0  0  0  0  0  0  0  0
   -7.1522   11.4347   29.7817 C   0  0  0  0  0  0  0  0  0  0  0  0
   -6.5217   10.2231   29.5480 C   0  0  0  0  0  0  0  0  0  0  0  0
   -5.1453   10.1607   29.4818 C   0  0  0  0  0  0  0  0  0  0  0  0
   -4.3881   11.3198   29.6502 C   0  0  0  0  0  0  0  0  0  0  0  0
   -2.9095   11.2581   29.5804 C   0  0  0  0  0  0  0  0  0  0  0  0
   -2.0373   12.3226   29.7230 C   0  0  0  0  0  0  0  0  0  0  0  0
   -2.3930   13.7327   29.9718 C   0  0  0  0  0  0  0  0  0  0  0  0
   -2.6080   14.6198   28.9083 C   0  0  0  0  0  0  0  0  0  0  0  0
   -2.9445   15.9271   29.1869 C   0  0  0  0  0  0  0  0  0  0  0  0
   -3.0534   16.3486   30.4331 N   0  0  0  0  0  0  0  0  0  0  0  0
   -2.8537   15.5486   31.4637 C   0  0  0  0  0  0  0  0  0  0  0  0
   -2.5197   14.2243   31.2780 C   0  0  0  0  0  0  0  0  0  0  0  0
   -0.7706   11.8009   29.5860 N   0  0  0  0  0  0  0  0  0  0  0  0
    0.4879   12.5472   29.6603 C   0  0  0  0  0  0  0  0  0  0  0  0
    0.9822   12.5705   31.1081 C   0  0  0  0  0  0  0  0  0  0  0  0
    1.4056   13.9215   31.6882 C   0  0  0  0  0  0  0  0  0  0  0  0
    2.4637   12.8714   31.3438 C   0  0  0  0  0  0  0  0  0  0  0  0
   -0.9023   10.4747   29.3706 C   0  0  0  0  0  0  0  0  0  0  0  0
   -2.1671   10.1572   29.3621 N   0  0  0  0  0  0  0  0  0  0  0  0
   -5.0269   12.5360   29.8900 C   0  0  0  0  0  0  0  0  0  0  0  0
   -6.4042   12.5891   29.9496 C   0  0  0  0  0  0  0  0  0  0  0  0
   -7.1090    9.3262   29.4176 H   0  0  0  0  0  0  0  0  0  0  0  0
   -4.6548    9.2159   29.2995 H   0  0  0  0  0  0  0  0  0  0  0  0
   -2.5163   14.2832   27.8863 H   0  0  0  0  0  0  0  0  0  0  0  0
   -3.1166   16.6175   28.3744 H   0  0  0  0  0  0  0  0  0  0  0  0
   -2.9536   15.9369   32.4666 H   0  0  0  0  0  0  0  0  0  0  0  0
   -2.3577   13.5754   32.1260 H   0  0  0  0  0  0  0  0  0  0  0  0
    1.2343   12.0647   29.0292 H   0  0  0  0  0  0  0  0  0  0  0  0
    0.3256   13.5683   29.3152 H   0  0  0  0  0  0  0  0  0  0  0  0
    0.4992   11.8624   31.7812 H   0  0  0  0  0  0  0  0  0  0  0  0
    1.3320   14.7936   31.0385 H   0  0  0  0  0  0  0  0  0  0  0  0
    1.2009   14.1024   32.7434 H   0  0  0  0  0  0  0  0  0  0  0  0
    2.9551   12.3615   32.1725 H   0  0  0  0  0  0  0  0  0  0  0  0
    3.0862   13.0523   30.4676 H   0  0  0  0  0  0  0  0  0  0  0  0
   -0.0856    9.7836   29.2232 H   0  0  0  0  0  0  0  0  0  0  0  0
   -4.4447   13.4355   30.0251 H   0  0  0  0  0  0  0  0  0  0  0  0
   -6.9000   13.5311   30.1318 H   0  0  0  0  0  0  0  0  0  0  0  0
  1  2  1  0  0  0  0
  2 22  2  0  0  0  0
  2  3  1  0  0  0  0
  3  4  2  0  0  0  0
  3 23  1  0  0  0  0
  4  5  1  0  0  0  0
  4 24  1  0  0  0  0
  5  6  1  0  0  0  0
  5 21  2  0  0  0  0
  6 20  1  0  0  0  0
  6  7  2  0  0  0  0
  7  8  1  0  0  0  0
  7 14  1  0  0  0  0
  8 13  2  0  0  0  0
  8  9  1  0  0  0  0
  9 10  2  0  0  0  0
  9 25  1  0  0  0  0
 10 11  1  0  0  0  0
 10 26  1  0  0  0  0
 11 12  2  0  0  0  0
 12 13  1  0  0  0  0
 12 27  1  0  0  0  0
 13 28  1  0  0  0  0
 14 15  1  0  0  0  0
 14 19  1  0  0  0  0
 15 16  1  0  0  0  0
 15 29  1  0  0  0  0
 15 30  1  0  0  0  0
 16 18  1  0  0  0  0
 16 17  1  0  0  0  0
 16 31  1  0  0  0  0
 17 18  1  0  0  0  0
 17 32  1  0  0  0  0
 17 33  1  0  0  0  0
 18 34  1  0  0  0  0
 18 35  1  0  0  0  0
 19 20  2  0  0  0  0
 19 36  1  0  0  0  0
 21 22  1  0  0  0  0
 21 37  1  0  0  0  0
 22 38  1  0  0  0  0
M  END
$$$$
